/*--------------------------------*- C++ -*----------------------------------*\
| =========                 |                                                 |
| \\      /  F ield         | OpenFOAM: The Open Source CFD Toolbox           |
|  \\    /   O peration     | Version:  v2206                                 |
|   \\  /    A nd           | Website:  www.openfoam.com                      |
|    \\/     M anipulation  |                                                 |
\*---------------------------------------------------------------------------*/
FoamFile
{
    version     2.0;
    format      ascii;
    class       dictionary;
    object      fvSolution;
}
// * * * * * * * * * * * * * * * * * * * * * * * * * * * * * * * * * * * * * //

solvers
{
    
    
    cellMotionU
    {
        solver          PCG;
        preconditioner  DIC;
        tolerance       1e-08;
        relTol          0;
    }
    
    
    
    "alpha.water.*"
    {
        nAlphaCorr      2;
        nAlphaSubCycles 5;
        cAlpha          1;

        MULESCorr        yes;
        nLimiterIter     5;

        solver          smoothSolver;
        smoother        symGaussSeidel;
        tolerance       1e-8;
        relTol          0;
        maxIter         10;
        minIter         1;
    };


    "(U|k|epsilon|omega)"
    {
        solver          smoothSolver;
        smoother        symGaussSeidel;
        tolerance       1e-6;
        relTol          0.1;
        minIter         1;
    };


    "(U|k|epsilon|omega)Final"
    {
        $U;
        relTol          0;
    }

    p_rgh
        {
        solver          PBiCGStab;
        preconditioner  diagonal;
        tolerance       1e-4;
        relTol          0.01;
        minIter         3;
        maxIter         50;
        };

        "pcorr.*"
    {
        solver          PCG;
        preconditioner
        {
            preconditioner  GAMG;
            tolerance       1e-5;
            relTol          0;
            smoother        GaussSeidel;
        }
        tolerance       1e-5;
        relTol          0;
        maxIter         50;
    }


    pcorr
    {
        $p_rgh;
        relTol          0;
    };

    p_rghFinal
    {
        solver          PBiCGStab;
        preconditioner  diagonal;
        tolerance       1e-7;
        relTol          0;
        maxIter         50;
        minIter         1;
    };
}

PIMPLE
{
    momentumPredictor           no;
    nOuterCorrectors            5;
    nCorrectors                 3;
    nNonOrthogonalCorrectors    3;
    pRefCell                    1;
    pRefValue                   0;
}


relaxationFactors
{
    fields
    {
    }
    equations
    {
        "U.*"                      0.7;
        p                          0.5;
        k                          0.7;
        omega                      0.7;
    }
}



cache
{
    grad(U);
}


// ************************************************************************* //

