/*--------------------------------*- C++ -*----------------------------------*\
  =========                 |
  \\      /  F ield         | OpenFOAM: The Open Source CFD Toolbox
   \\    /   O peration     | Website:  https://openfoam.org
    \\  /    A nd           | Version:  6
     \\/     M anipulation  |
\*---------------------------------------------------------------------------*/
FoamFile
{
    version     2.0;
    format      ascii;
    class       volScalarField;
    object      p_rgh;
}
// * * * * * * * * * * * * * * * * * * * * * * * * * * * * * * * * * * * * * //

dimensions      [1 -1 -2 0 0 0 0];

internalField   uniform 0;

boundaryField
{
    ".*"
    {
        type            zeroGradient;
        value           uniform 0;
    }

    inlet
    {
        type            zeroGradient;
        value			uniform 0;
    }
	
    wall
    {
       type             zeroGradient;
       value			uniform 0;
    }
	
	outlet
    {
        type            zeroGradient;
        value			uniform 0;
    }
    
    "overTop1|overTop2|overTop3|overTop4|overTop5|overTop6|overBot1|overBot2|overBot3|overBot4|overBot5|overBot6|arcEndTop|arcEndBot"
    {
        type            overset;
    }
}

// ************************************************************************* //
